Circuit: * D:\Anu\CMOS\Variation in terms of body effect(gmb).asc

Instance "m1": Length shorter than recommended for a level 1 MOSFET.
Vsb: Missing value, assumed 0V @ DC

SPICE directive ".backanno" has no meaning for netlists.
id: id(m1)=0.000318331 at 1
gmb: d(id(m1))=-0.000121022 at 1


Date: Mon Mar 18 21:23:55 2024
Total elapsed time: 0.046 seconds.

tnom = 27
temp = 27
method = trap
totiter = 56
traniter = 0
tranpoints = 0
accept = 0
rejected = 0
matrix size = 6
fillins = 0
solver = Normal
Matrix Compiler1: 236 bytes object code size
Matrix Compiler2: 364 bytes object code size
